I"ê/Users/Huang/Documents/Flatiron%20School/dev/code/mod-2/rails-dynamic-request-readme-nyc-web-031218/app/assets/stylesheets/application.css?type=text/css&pipeline=self&id=1175c35a533c85f6b861afce6122e4168a06d311801d2c4dcecf0dbda7aaa2d6:ET