I"÷/Users/Huang/Documents/Flatiron%20School/dev/code/mod-2/rails-dynamic-request-readme-nyc-web-031218/app/assets/javascripts/application.js?type=application/javascript&pipeline=self&id=49fc3f9d36f5a8c8258cb526c686b3ad8304a009cedd6618ab911dc25c034f64:ET