I"Ü/Users/Huang/Documents/Flatiron%20School/dev/code/mod-2/rails-dynamic-request-readme-nyc-web-031218/app/assets/stylesheets/application.css?type=text/css&id=4b931fe9f350baae70d03a55f8a62fe9fe398add916db47851319000696d8a44:ET