I"é/Users/Huang/Documents/Flatiron%20School/dev/code/mod-2/rails-dynamic-request-readme-nyc-web-031218/app/assets/javascripts/application.js?type=application/javascript&id=5ebf26addea7a0aa050633b8ada06ec7f0e58b99609d295342b4aa90fcb4508b:ET